<?xml version="1.0" encoding="UTF-8"?>

<!-- generated on 2026-04-30 10:17:43 by Eclipse SUMO netedit Version 1.18.0
-->

<additional xmlns:xsi="http://www.w3.org/2001/XMLSchema-instance" xsi:noNamespaceSchemaLocation="http://sumo.dlr.de/xsd/additional_file.xsd">
    <!-- StoppingPlaces -->
    <chargingStation id="cs_0" lane="E7_0" startPos="1.00" endPos="14.00" power="22000.00" friendlyPos="true"/>
    <chargingStation id="cs_1" lane="E2_0" startPos="1.00" endPos="14.00" friendlyPos="true" power="22000.00"/>
    <chargingStation id="cs_2" lane="E22_0" startPos="1.00" endPos="14.00" friendlyPos="1" power="22000.00"/>
    <chargingStation id="cs_3" lane="E12_0" startPos="1.00" endPos="14.00" friendlyPos="1" power="22000.00"/>
    <chargingStation id="cs_4" lane="E9_0" startPos="1.00" endPos="14.00" friendlyPos="1" power="22000.00"/>


</additional>
