<?xml version="1.0" encoding="UTF-8"?>

<!-- generated on 2026-05-09 10:52:01.016414 by Eclipse SUMO randomTrips.py v1_26_0+1278-8cb37b9e3c1
<configuration>
    <net-file value="erlangen.net.xml"/>
    <output-trip-file value="ev_trips.trips.xml"/>
    <trip-attributes value="type=&quot;EV_low&quot;"/>
    <fringe-factor value="5"/>
    <end value="86400.0"/>
    <period value="20.0"/>
    <random-depart value="True"/>
</configuration>
-->

<routes xmlns:xsi="http://www.w3.org/2001/XMLSchema-instance" xsi:noNamespaceSchemaLocation="http://sumo.dlr.de/xsd/routes_file.xsd">
    <trip id="0" depart="7.00" from="-39036152#0" to="39003896#21" type="EV_low"/>
    <trip id="1" depart="44.00" from="-39003454#1" to="23906767#11" type="EV_low"/>
    <trip id="2" depart="55.00" from="-39437418#1" to="-23906782#23" type="EV_low"/>
    <trip id="3" depart="69.00" from="-1202556864#2" to="23906784#3" type="EV_low"/>
    <trip id="4" depart="85.00" from="23888386#1" to="23906782#22" type="EV_low"/>
    <trip id="5" depart="85.00" from="-47907916#12" to="-27000397#3" type="EV_low"/>
    <trip id="6" depart="107.00" from="-23906781#4" to="257598222#2" type="EV_low"/>
    <trip id="7" depart="125.00" from="1164348429#0" to="-39036152#27" type="EV_low"/>
    <trip id="8" depart="134.00" from="39003739#3" to="-23906792#1" type="EV_low"/>
    <trip id="9" depart="143.00" from="E12" to="-372348591#9" type="EV_low"/>
    <trip id="10" depart="156.00" from="969245855#1" to="39004220#1" type="EV_low"/>
    <trip id="11" depart="159.00" from="969245855#0" to="-23906788#0" type="EV_low"/>
    <trip id="12" depart="162.00" from="38958194#3" to="-258778187#1" type="EV_low"/>
    <trip id="13" depart="186.00" from="-1473331591#2" to="-372348591#1" type="EV_low"/>
    <trip id="14" depart="197.00" from="969245855#0" to="-29881060#1" type="EV_low"/>
    <trip id="15" depart="207.00" from="-1256914431#1" to="-47907916#0" type="EV_low"/>
    <trip id="16" depart="250.00" from="-27000397#4" to="276487115#8" type="EV_low"/>
    <trip id="17" depart="276.00" from="23888385#2" to="-247031740#0" type="EV_low"/>
    <trip id="18" depart="279.00" from="276487117#6" to="276487117#12" type="EV_low"/>
    <trip id="19" depart="295.00" from="-23906782#19" to="-39437411#4" type="EV_low"/>
    <trip id="20" depart="303.00" from="-39036152#22" to="-39437409#1" type="EV_low"/>
    <trip id="21" depart="352.00" from="-47907916#7" to="-1017850962#7" type="EV_low"/>
    <trip id="22" depart="358.00" from="1164366785#0" to="276487109#6" type="EV_low"/>
    <trip id="23" depart="364.00" from="39437415#4" to="39004220#0" type="EV_low"/>
    <trip id="24" depart="373.00" from="276487113#8" to="1178584785#1" type="EV_low"/>
    <trip id="25" depart="378.00" from="-1106484586#14" to="-1017850962#6" type="EV_low"/>
    <trip id="26" depart="378.00" from="276487110#12" to="-276487109#7" type="EV_low"/>
    <trip id="27" depart="393.00" from="39003870#2" to="-29880895#4" type="EV_low"/>
    <trip id="28" depart="396.00" from="-23906768#0" to="1106484587#0" type="EV_low"/>
    <trip id="29" depart="446.00" from="-28154055#14" to="-128817187#0" type="EV_low"/>
    <trip id="30" depart="459.00" from="-1164433070#2" to="39437411#4" type="EV_low"/>
    <trip id="31" depart="478.00" from="-39437412#4" to="1164366795#0" type="EV_low"/>
    <trip id="32" depart="504.00" from="1150210752" to="-39437411#4" type="EV_low"/>
    <trip id="33" depart="560.00" from="263804570" to="-23906784#8" type="EV_low"/>
    <trip id="34" depart="603.00" from="E23" to="1106484583#1" type="EV_low"/>
    <trip id="35" depart="643.00" from="276487112#3" to="-257034846#11" type="EV_low"/>
    <trip id="36" depart="662.00" from="39018270#5" to="29879649#2" type="EV_low"/>
    <trip id="37" depart="705.00" from="-1106484586#2" to="-276487109#4" type="EV_low"/>
    <trip id="38" depart="716.00" from="923837643#1" to="-27000408#11" type="EV_low"/>
    <trip id="39" depart="730.00" from="-1106484586#6" to="1106484587#2" type="EV_low"/>
    <trip id="40" depart="736.00" from="-23906782#1" to="27000406#3" type="EV_low"/>
    <trip id="41" depart="766.00" from="28154055#1" to="-39003896#17" type="EV_low"/>
    <trip id="42" depart="802.00" from="23906787#12" to="276487115#4" type="EV_low"/>
    <trip id="43" depart="802.00" from="23906782#27" to="23906772#3" type="EV_low"/>
    <trip id="44" depart="818.00" from="-1167089071" to="-23906782#1" type="EV_low"/>
    <trip id="45" depart="820.00" from="35595627#6" to="-1178584785#1" type="EV_low"/>
    <trip id="46" depart="822.00" from="-23906776" to="-39437418#1" type="EV_low"/>
    <trip id="47" depart="827.00" from="-23906782#10" to="-276487113#7" type="EV_low"/>
    <trip id="48" depart="834.00" from="27000397#9" to="-27000406#2" type="EV_low"/>
    <trip id="49" depart="851.00" from="258778187#3" to="-1017850963#5" type="EV_low"/>
    <trip id="50" depart="881.00" from="-39036152#1" to="-23906774#1" type="EV_low"/>
    <trip id="51" depart="902.00" from="1106484587#2" to="23906782#25" type="EV_low"/>
    <trip id="52" depart="928.00" from="27000397#7" to="-39036152#35" type="EV_low"/>
    <trip id="53" depart="993.00" from="39018096#1" to="1164346026#0" type="EV_low"/>
    <trip id="54" depart="996.00" from="23906782#19" to="-276487117#7" type="EV_low"/>
    <trip id="55" depart="1006.00" from="276487117#5" to="1106484586#15" type="EV_low"/>
    <trip id="56" depart="1038.00" from="23906781#5" to="276487117#10" type="EV_low"/>
    <trip id="57" depart="1042.00" from="35099697#4" to="47907916#7" type="EV_low"/>
    <trip id="58" depart="1045.00" from="-38958168#1" to="-39036152#21" type="EV_low"/>
    <trip id="59" depart="1055.00" from="-23906788#4" to="143920640#0" type="EV_low"/>
    <trip id="60" depart="1063.00" from="39036152#1" to="263804570" type="EV_low"/>
    <trip id="61" depart="1105.00" from="-5037404#1" to="-276487110#7" type="EV_low"/>
    <trip id="62" depart="1110.00" from="-1106484585#0" to="-23888388#1" type="EV_low"/>
    <trip id="63" depart="1118.00" from="-23906774#2" to="23888386#0" type="EV_low"/>
    <trip id="64" depart="1145.00" from="-969245855#0" to="39437412#1" type="EV_low"/>
    <trip id="65" depart="1200.00" from="276487117#15" to="-1473331591#2" type="EV_low"/>
    <trip id="66" depart="1221.00" from="27000408#9" to="39018096#1" type="EV_low"/>
    <trip id="67" depart="1274.00" from="23906787#7" to="-47907916#13" type="EV_low"/>
    <trip id="68" depart="1275.00" from="5037404#5" to="-276487115#1" type="EV_low"/>
    <trip id="69" depart="1305.00" from="-1178583971#1" to="29879649#4" type="EV_low"/>
    <trip id="70" depart="1331.00" from="39003739#8" to="38958168#1" type="EV_low"/>
    <trip id="71" depart="1337.00" from="-38958168#3" to="257034846#8" type="EV_low"/>
    <trip id="72" depart="1353.00" from="-39036152#17" to="-23906782#20" type="EV_low"/>
    <trip id="73" depart="1386.00" from="372348591#8" to="39003896#8" type="EV_low"/>
    <trip id="74" depart="1403.00" from="-103416087" to="-23906787#3" type="EV_low"/>
    <trip id="75" depart="1448.00" from="23906788#2" to="-35595627#8" type="EV_low"/>
    <trip id="76" depart="1468.00" from="39005390#2" to="39437415#3" type="EV_low"/>
    <trip id="77" depart="1511.00" from="-276487113#9" to="276487110#1" type="EV_low"/>
    <trip id="78" depart="1522.00" from="-39003739#0" to="-372348591#9" type="EV_low"/>
    <trip id="79" depart="1539.00" from="-23906775" to="-39018333#2" type="EV_low"/>
    <trip id="80" depart="1548.00" from="-39437414#0" to="35595627#2" type="EV_low"/>
    <trip id="81" depart="1599.00" from="27000396#4" to="-969245855#0" type="EV_low"/>
    <trip id="82" depart="1653.00" from="-39036152#10" to="39003896#20" type="EV_low"/>
    <trip id="83" depart="1709.00" from="-23906792#3" to="-23906784#6" type="EV_low"/>
    <trip id="84" depart="1709.00" from="276487109#2" to="5037404#7" type="EV_low"/>
    <trip id="85" depart="1710.00" from="372348591#13" to="-23906781#2" type="EV_low"/>
    <trip id="86" depart="1720.00" from="39036152#11" to="1017850962#5" type="EV_low"/>
    <trip id="87" depart="1757.00" from="1473331591#1" to="-39437414#1" type="EV_low"/>
    <trip id="88" depart="1775.00" from="23906782#1" to="276487117#11" type="EV_low"/>
    <trip id="89" depart="1776.00" from="23906782#1" to="38958194#5" type="EV_low"/>
    <trip id="90" depart="1785.00" from="39003896#10" to="276487109#1" type="EV_low"/>
    <trip id="91" depart="1827.00" from="39003896#9" to="1017850962#6" type="EV_low"/>
    <trip id="92" depart="1833.00" from="-5062430#1" to="39003896#3" type="EV_low"/>
    <trip id="93" depart="1836.00" from="-39036152#38" to="-128817187#0" type="EV_low"/>
    <trip id="94" depart="1855.00" from="23906792#3" to="-1106484583#3" type="EV_low"/>
    <trip id="95" depart="1881.00" from="39003739#1" to="1164433070#2" type="EV_low"/>
    <trip id="96" depart="1921.00" from="276487111#3" to="27000408#7" type="EV_low"/>
    <trip id="97" depart="1925.00" from="-27000408#1" to="39437415#4" type="EV_low"/>
    <trip id="98" depart="1927.00" from="39003739#6" to="1164366794" type="EV_low"/>
    <trip id="99" depart="1944.00" from="27000396#1" to="23906782#19" type="EV_low"/>
    <trip id="100" depart="1953.00" from="-39036152#27" to="276487109#0" type="EV_low"/>
    <trip id="101" depart="1954.00" from="-5037404#11" to="247031740#1" type="EV_low"/>
    <trip id="102" depart="1967.00" from="23906787#3" to="-23906791#3" type="EV_low"/>
    <trip id="103" depart="1971.00" from="35099697#0" to="39004220#0" type="EV_low"/>
    <trip id="104" depart="1996.00" from="23906782#12" to="-1106484583#2" type="EV_low"/>
    <trip id="105" depart="2021.00" from="39036152#6" to="1106484588#0" type="EV_low"/>
    <trip id="106" depart="2026.00" from="-450880987#8" to="1106484586#12" type="EV_low"/>
    <trip id="107" depart="2040.00" from="-23906792#1" to="276487112#3" type="EV_low"/>
    <trip id="108" depart="2048.00" from="-29879649#2" to="-372348591#0" type="EV_low"/>
    <trip id="109" depart="2104.00" from="-276487115#1" to="1106484588#2" type="EV_low"/>
    <trip id="110" depart="2118.00" from="1256914431#2" to="-39003896#21" type="EV_low"/>
    <trip id="111" depart="2128.00" from="29881060#2" to="-23888385#0" type="EV_low"/>
    <trip id="112" depart="2133.00" from="-39036152#5" to="23888385#8" type="EV_low"/>
    <trip id="113" depart="2147.00" from="-23888385#5" to="1106484586#2" type="EV_low"/>
    <trip id="114" depart="2209.00" from="-28168068#1" to="5037404#6" type="EV_low"/>
    <trip id="115" depart="2213.00" from="276487111#5" to="-1106484586#14" type="EV_low"/>
    <trip id="116" depart="2215.00" from="-39005390#4" to="-1164348429#1" type="EV_low"/>
    <trip id="117" depart="2216.00" from="1256914430" to="30633011" type="EV_low"/>
    <trip id="118" depart="2239.00" from="28154055#0" to="450880987#5" type="EV_low"/>
    <trip id="119" depart="2242.00" from="23906787#0" to="39003896#7" type="EV_low"/>
    <trip id="120" depart="2243.00" from="128817187#3" to="23906792#1" type="EV_low"/>
    <trip id="121" depart="2251.00" from="-39437412#4" to="-372348591#6" type="EV_low"/>
    <trip id="122" depart="2272.00" from="31795494#2" to="29880895#3" type="EV_low"/>
    <trip id="123" depart="2284.00" from="372348591#13" to="-372348591#0" type="EV_low"/>
    <trip id="124" depart="2298.00" from="276487115#1" to="23906775" type="EV_low"/>
    <trip id="125" depart="2367.00" from="27000408#14" to="-39003739#5" type="EV_low"/>
    <trip id="126" depart="2368.00" from="-39437411#3" to="-23906772#4" type="EV_low"/>
    <trip id="127" depart="2380.00" from="23907190#1" to="-1017850962#3" type="EV_low"/>
    <trip id="128" depart="2427.00" from="-372348591#7" to="23906784#2" type="EV_low"/>
    <trip id="129" depart="2453.00" from="28154055#20" to="143920640#0" type="EV_low"/>
    <trip id="130" depart="2487.00" from="-39003739#10" to="-23906781#6" type="EV_low"/>
    <trip id="131" depart="2503.00" from="39005535#0" to="1106484585#1" type="EV_low"/>
    <trip id="132" depart="2519.00" from="30633012#0" to="276487111#10" type="EV_low"/>
    <trip id="133" depart="2561.00" from="-39018096#1" to="-276487113#9" type="EV_low"/>
    <trip id="134" depart="2563.00" from="-258778187#2" to="-23906782#28" type="EV_low"/>
    <trip id="135" depart="2575.00" from="372348591#9" to="-27000408#2" type="EV_low"/>
    <trip id="136" depart="2593.00" from="31795494#1" to="-27000397#13" type="EV_low"/>
    <trip id="137" depart="2608.00" from="-31795494#0" to="276487113#6" type="EV_low"/>
    <trip id="138" depart="2688.00" from="-1167089071" to="23906784#11" type="EV_low"/>
    <trip id="139" depart="2727.00" from="257034846#3" to="-23906782#4" type="EV_low"/>
    <trip id="140" depart="2744.00" from="39003896#9" to="-47907916#14" type="EV_low"/>
    <trip id="141" depart="2813.00" from="23906767#0" to="1106484587#1" type="EV_low"/>
    <trip id="142" depart="2874.00" from="47907916#11" to="-1017850962#6" type="EV_low"/>
    <trip id="143" depart="2879.00" from="276487110#4" to="146288716#2" type="EV_low"/>
    <trip id="144" depart="2890.00" from="-39036152#27" to="23906767#11" type="EV_low"/>
    <trip id="145" depart="2900.00" from="39036152#30" to="276487117#14" type="EV_low"/>
    <trip id="146" depart="2919.00" from="39036152#1" to="27000396#5" type="EV_low"/>
    <trip id="147" depart="2933.00" from="-247031740#1" to="29880895#1" type="EV_low"/>
    <trip id="148" depart="2937.00" from="-23906772#0" to="23906792#6" type="EV_low"/>
    <trip id="149" depart="2976.00" from="23906781#1" to="-31795494#2" type="EV_low"/>
    <trip id="150" depart="2993.00" from="39003896#12" to="-39036152#34" type="EV_low"/>
    <trip id="151" depart="3003.00" from="23906781#5" to="27000397#0" type="EV_low"/>
    <trip id="152" depart="3003.00" from="-276487110#6" to="-39018270#5" type="EV_low"/>
    <trip id="153" depart="3021.00" from="-35595627#4" to="-28154055#17" type="EV_low"/>
    <trip id="154" depart="3063.00" from="28168068#0" to="-23906787#2" type="EV_low"/>
    <trip id="155" depart="3082.00" from="23906772#7" to="39003896#21" type="EV_low"/>
    <trip id="156" depart="3118.00" from="1106484586#13" to="372348591#12" type="EV_low"/>
    <trip id="157" depart="3149.00" from="1221478482#0" to="-29881060#2" type="EV_low"/>
    <trip id="158" depart="3175.00" from="276487110#5" to="146288716#2" type="EV_low"/>
    <trip id="159" depart="3222.00" from="-27000404#0" to="-27000408#1" type="EV_low"/>
    <trip id="160" depart="3232.00" from="27000408#11" to="258778187#3" type="EV_low"/>
    <trip id="161" depart="3247.00" from="39036152#26" to="-23906784#7" type="EV_low"/>
    <trip id="162" depart="3249.00" from="27000406#4" to="48441537" type="EV_low"/>
    <trip id="163" depart="3268.00" from="-257034846#1" to="128817187#1" type="EV_low"/>
    <trip id="164" depart="3318.00" from="23906784#9" to="27000406#2" type="EV_low"/>
    <trip id="165" depart="3318.00" from="276487114#12" to="1473331591#5" type="EV_low"/>
    <trip id="166" depart="3328.00" from="23888386#5" to="39437407" type="EV_low"/>
    <trip id="167" depart="3358.00" from="27000406#4" to="257034846#4" type="EV_low"/>
    <trip id="168" depart="3361.00" from="39005390#1" to="1202556864#3" type="EV_low"/>
    <trip id="169" depart="3363.00" from="39003870#3" to="-39036152#4" type="EV_low"/>
    <trip id="170" depart="3367.00" from="-1106484585#0" to="-23906781#6" type="EV_low"/>
    <trip id="171" depart="3436.00" from="-39003870#2" to="-1221478482#0" type="EV_low"/>
    <trip id="172" depart="3448.00" from="-1221478482#1" to="-276487115#5" type="EV_low"/>
    <trip id="173" depart="3469.00" from="276487117#6" to="5062430#1" type="EV_low"/>
    <trip id="174" depart="3492.00" from="258067387#2" to="-23906788#5" type="EV_low"/>
    <trip id="175" depart="3511.00" from="-1286504771#3" to="276487117#2" type="EV_low"/>
    <trip id="176" depart="3544.00" from="-27000397#11" to="1286504771#2" type="EV_low"/>
    <trip id="177" depart="3547.00" from="-38958168#10" to="-47907916#0" type="EV_low"/>
    <trip id="178" depart="3589.00" from="23906782#17" to="257034846#6" type="EV_low"/>
    <trip id="179" depart="3595.00" from="128817187#3" to="-276487109#4" type="EV_low"/>
    <trip id="180" depart="3611.00" from="23906788#2" to="-39005535#1" type="EV_low"/>
    <trip id="181" depart="3637.00" from="1106484586#11" to="28154055#13" type="EV_low"/>
    <trip id="182" depart="3640.00" from="27000397#16" to="27000397#1" type="EV_low"/>
    <trip id="183" depart="3668.00" from="-1167089071" to="-39003896#7" type="EV_low"/>
    <trip id="184" depart="3672.00" from="-39018270#3" to="276487117#8" type="EV_low"/>
    <trip id="185" depart="3676.00" from="258778187#2" to="47907916#10" type="EV_low"/>
    <trip id="186" depart="3680.00" from="-1202556864#2" to="276487111#12" type="EV_low"/>
    <trip id="187" depart="3703.00" from="-27000397#10" to="39003739#11" type="EV_low"/>
    <trip id="188" depart="3711.00" from="38958194#0" to="-39437417#1" type="EV_low"/>
    <trip id="189" depart="3786.00" from="-27000408#11" to="23906784#2" type="EV_low"/>
    <trip id="190" depart="3806.00" from="27000406#3" to="-39003870#2" type="EV_low"/>
    <trip id="191" depart="3821.00" from="23888388#7" to="276487110#5" type="EV_low"/>
    <trip id="192" depart="3823.00" from="-258778187#3" to="27000408#9" type="EV_low"/>
    <trip id="193" depart="3825.00" from="-258067387#1" to="-450880987#6" type="EV_low"/>
    <trip id="194" depart="3836.00" from="519072663#1" to="-1473331591#1" type="EV_low"/>
    <trip id="195" depart="3890.00" from="47907916#1" to="276487110#12" type="EV_low"/>
    <trip id="196" depart="3906.00" from="-23906781#3" to="-1164366795#0" type="EV_low"/>
    <trip id="197" depart="3918.00" from="-276487115#2" to="-276487115#1" type="EV_low"/>
    <trip id="198" depart="3930.00" from="-23906788#5" to="372348591#17" type="EV_low"/>
    <trip id="199" depart="3943.00" from="-1017850962#8" to="-5037404#11" type="EV_low"/>
    <trip id="200" depart="3995.00" from="39437409#0" to="-1164366785#1" type="EV_low"/>
    <trip id="201" depart="4002.00" from="39036152#36" to="23906772#7" type="EV_low"/>
    <trip id="202" depart="4015.00" from="276487116#1" to="23906782#29" type="EV_low"/>
    <trip id="203" depart="4015.00" from="372348591#11" to="-28154055#9" type="EV_low"/>
    <trip id="204" depart="4024.00" from="276487118#3" to="143920640#1" type="EV_low"/>
    <trip id="205" depart="4047.00" from="-146288716#1" to="27000404#0" type="EV_low"/>
    <trip id="206" depart="4119.00" from="1162630331#1" to="39437417#0" type="EV_low"/>
    <trip id="207" depart="4120.00" from="1106484587#2" to="276487117#5" type="EV_low"/>
    <trip id="208" depart="4137.00" from="-23906788#2" to="128817187#2" type="EV_low"/>
    <trip id="209" depart="4183.00" from="-39005390#4" to="-38958168#7" type="EV_low"/>
    <trip id="210" depart="4187.00" from="39003896#16" to="247031740#0" type="EV_low"/>
    <trip id="211" depart="4193.00" from="-30098917#3" to="-28154055#16" type="EV_low"/>
    <trip id="212" depart="4205.00" from="39437416" to="23906782#19" type="EV_low"/>
    <trip id="213" depart="4244.00" from="-47907916#3" to="1473331591#3" type="EV_low"/>
    <trip id="214" depart="4282.00" from="276487113#1" to="23906788#4" type="EV_low"/>
    <trip id="215" depart="4285.00" from="-23906776" to="-38958168#2" type="EV_low"/>
    <trip id="216" depart="4302.00" from="-276487109#7" to="23906787#3" type="EV_low"/>
    <trip id="217" depart="4328.00" from="39036152#21" to="-276487111#9" type="EV_low"/>
    <trip id="218" depart="4351.00" from="-1164366794" to="39003896#2" type="EV_low"/>
    <trip id="219" depart="4359.00" from="-39003870#2" to="28154055#12" type="EV_low"/>
    <trip id="220" depart="4389.00" from="-23906775" to="-276487114#11" type="EV_low"/>
    <trip id="221" depart="4426.00" from="27000413#0" to="-1106484587#0" type="EV_low"/>
    <trip id="222" depart="4428.00" from="1106484586#6" to="276487115#3" type="EV_low"/>
    <trip id="223" depart="4444.00" from="1106484586#2" to="1150210752" type="EV_low"/>
    <trip id="224" depart="4458.00" from="-5037404#9" to="-28154055#20" type="EV_low"/>
    <trip id="225" depart="4552.00" from="23906791#3" to="-31368738" type="EV_low"/>
    <trip id="226" depart="4555.00" from="-1473331591#4" to="-23906772#2" type="EV_low"/>
    <trip id="227" depart="4570.00" from="48441537" to="276487115#7" type="EV_low"/>
    <trip id="228" depart="4598.00" from="1164348430#3" to="23906782#4" type="EV_low"/>
    <trip id="229" depart="4612.00" from="-27000397#6" to="23906782#8" type="EV_low"/>
    <trip id="230" depart="4655.00" from="-27000399#0" to="258778187#1" type="EV_low"/>
    <trip id="231" depart="4687.00" from="35595627#5" to="-27000406#2" type="EV_low"/>
    <trip id="232" depart="4692.00" from="35099697#0" to="39003896#1" type="EV_low"/>
    <trip id="233" depart="4725.00" from="276487111#10" to="-39437412#1" type="EV_low"/>
    <trip id="234" depart="4733.00" from="29881060#2" to="-143920640#0" type="EV_low"/>
    <trip id="235" depart="4741.00" from="261052504" to="-1106484586#9" type="EV_low"/>
    <trip id="236" depart="4762.00" from="27000408#14" to="-1164348430#2" type="EV_low"/>
    <trip id="237" depart="4766.00" from="-146288716#2" to="-258067387#0" type="EV_low"/>
    <trip id="238" depart="4774.00" from="-276487111#10" to="-1382768388#3" type="EV_low"/>
    <trip id="239" depart="4852.00" from="30633012#0" to="39018270#2" type="EV_low"/>
    <trip id="240" depart="4887.00" from="-39005535#2" to="-47907916#0" type="EV_low"/>
    <trip id="241" depart="4895.00" from="-39005535#0" to="-30098917#1" type="EV_low"/>
    <trip id="242" depart="4920.00" from="-39003896#18" to="-23906782#24" type="EV_low"/>
    <trip id="243" depart="4932.00" from="-1017850963#0" to="27000408#2" type="EV_low"/>
    <trip id="244" depart="4935.00" from="-128817187#2" to="276487111#4" type="EV_low"/>
    <trip id="245" depart="4940.00" from="-1164433070#2" to="372348591#4" type="EV_low"/>
    <trip id="246" depart="4952.00" from="-38958168#1" to="1106484586#9" type="EV_low"/>
    <trip id="247" depart="4967.00" from="-276487117#14" to="258778187#1" type="EV_low"/>
    <trip id="248" depart="5004.00" from="23906781#2" to="-276487117#5" type="EV_low"/>
    <trip id="249" depart="5022.00" from="39036152#33" to="-39003896#7" type="EV_low"/>
    <trip id="250" depart="5056.00" from="30633012#0" to="-1162630331#1" type="EV_low"/>
    <trip id="251" depart="5076.00" from="-23906787#7" to="-27000408#9" type="EV_low"/>
    <trip id="252" depart="5101.00" from="276487111#8" to="28154055#13" type="EV_low"/>
    <trip id="253" depart="5149.00" from="372348591#5" to="-28154055#18" type="EV_low"/>
    <trip id="254" depart="5164.00" from="23906784#4" to="-28154055#4" type="EV_low"/>
    <trip id="255" depart="5168.00" from="39003896#20" to="47907916#1" type="EV_low"/>
    <trip id="256" depart="5221.00" from="39003454#1" to="23906788#2" type="EV_low"/>
    <trip id="257" depart="5256.00" from="450880987#6" to="-1106484583#1" type="EV_low"/>
    <trip id="258" depart="5300.00" from="39003739#9" to="-23906787#7" type="EV_low"/>
    <trip id="259" depart="5301.00" from="-1164366798#0" to="23888385#8" type="EV_low"/>
    <trip id="260" depart="5318.00" from="-39003896#6" to="1382768388#4" type="EV_low"/>
    <trip id="261" depart="5357.00" from="-23888385#1" to="-27000408#10" type="EV_low"/>
    <trip id="262" depart="5385.00" from="276487111#10" to="27000413#1" type="EV_low"/>
    <trip id="263" depart="5430.00" from="-27000397#7" to="39018096#3" type="EV_low"/>
    <trip id="264" depart="5466.00" from="372348591#8" to="-23906787#9" type="EV_low"/>
    <trip id="265" depart="5482.00" from="-257034846#4" to="23906782#17" type="EV_low"/>
    <trip id="266" depart="5485.00" from="-276487111#11" to="-23906782#19" type="EV_low"/>
    <trip id="267" depart="5499.00" from="257034846#15" to="23888385#3" type="EV_low"/>
    <trip id="268" depart="5500.00" from="-1202556864#3" to="276487112#2" type="EV_low"/>
    <trip id="269" depart="5510.00" from="23906787#8" to="-146288716#1" type="EV_low"/>
    <trip id="270" depart="5543.00" from="257034846#2" to="-276487113#4" type="EV_low"/>
    <trip id="271" depart="5564.00" from="-263804570" to="23888388#4" type="EV_low"/>
    <trip id="272" depart="5571.00" from="39437417#1" to="-38958201#1" type="EV_low"/>
    <trip id="273" depart="5581.00" from="257034846#15" to="-276487110#7" type="EV_low"/>
    <trip id="274" depart="5586.00" from="-276487116#2" to="-1382768388#2" type="EV_low"/>
    <trip id="275" depart="5602.00" from="-258067387#1" to="1017850963#1" type="EV_low"/>
    <trip id="276" depart="5619.00" from="-29881060#3" to="23907190#0" type="EV_low"/>
    <trip id="277" depart="5624.00" from="27000397#11" to="-23906792#4" type="EV_low"/>
    <trip id="278" depart="5636.00" from="146288716#0" to="28168068#1" type="EV_low"/>
    <trip id="279" depart="5653.00" from="450880987#8" to="-257034846#3" type="EV_low"/>
    <trip id="280" depart="5682.00" from="-28154055#6" to="276487117#4" type="EV_low"/>
    <trip id="281" depart="5694.00" from="27000406#7" to="23906787#11" type="EV_low"/>
    <trip id="282" depart="5715.00" from="-276487114#8" to="-39003739#1" type="EV_low"/>
    <trip id="283" depart="5717.00" from="257598222#2" to="-372348591#0" type="EV_low"/>
    <trip id="284" depart="5739.00" from="-5037404#0" to="-450880987#0" type="EV_low"/>
    <trip id="285" depart="5744.00" from="276487116#2" to="1017850963#3" type="EV_low"/>
    <trip id="286" depart="5747.00" from="-23906772#8" to="23906787#8" type="EV_low"/>
    <trip id="287" depart="5769.00" from="-1473331591#4" to="-276487117#4" type="EV_low"/>
    <trip id="288" depart="5778.00" from="35099697#0" to="39003896#9" type="EV_low"/>
    <trip id="289" depart="5783.00" from="-258778187#3" to="276487110#10" type="EV_low"/>
    <trip id="290" depart="5827.00" from="23906782#4" to="276487109#1" type="EV_low"/>
    <trip id="291" depart="5828.00" from="39003896#9" to="372348591#6" type="EV_low"/>
    <trip id="292" depart="5831.00" from="23906784#10" to="29879649#3" type="EV_low"/>
    <trip id="293" depart="5869.00" from="23888385#7" to="276487115#1" type="EV_low"/>
    <trip id="294" depart="5902.00" from="-27000397#9" to="-1164348430#0" type="EV_low"/>
    <trip id="295" depart="5920.00" from="-276487112#3" to="39004220#1" type="EV_low"/>
    <trip id="296" depart="5938.00" from="1164433070#0" to="23906792#0" type="EV_low"/>
    <trip id="297" depart="5946.00" from="-23906784#8" to="-39018096#5" type="EV_low"/>
    <trip id="298" depart="5951.00" from="39003896#8" to="23906767#8" type="EV_low"/>
    <trip id="299" depart="5960.00" from="38958168#5" to="-23906784#8" type="EV_low"/>
    <trip id="300" depart="5971.00" from="1017850963#0" to="-23888388#3" type="EV_low"/>
    <trip id="301" depart="5977.00" from="-38958168#9" to="-1106484583#0" type="EV_low"/>
    <trip id="302" depart="5980.00" from="-276487109#4" to="450880987#7" type="EV_low"/>
    <trip id="303" depart="5987.00" from="5062430#3" to="258067387#2" type="EV_low"/>
    <trip id="304" depart="5990.00" from="276487113#8" to="-23906787#6" type="EV_low"/>
    <trip id="305" depart="6002.00" from="-23906788#2" to="23888385#1" type="EV_low"/>
    <trip id="306" depart="6039.00" from="1382768388#4" to="39003739#6" type="EV_low"/>
    <trip id="307" depart="6081.00" from="-23906784#4" to="276487109#8" type="EV_low"/>
    <trip id="308" depart="6083.00" from="39437409#3" to="-1164366794" type="EV_low"/>
    <trip id="309" depart="6085.00" from="276487114#13" to="-276487110#3" type="EV_low"/>
    <trip id="310" depart="6113.00" from="-276487113#3" to="-276487110#6" type="EV_low"/>
    <trip id="311" depart="6116.00" from="257034846#11" to="1164366785#0" type="EV_low"/>
    <trip id="312" depart="6137.00" from="28154055#0" to="-39005535#0" type="EV_low"/>
    <trip id="313" depart="6145.00" from="39036152#20" to="39003896#14" type="EV_low"/>
    <trip id="314" depart="6151.00" from="-1164366794" to="23906788#3" type="EV_low"/>
    <trip id="315" depart="6154.00" from="-23906768#1" to="47907916#14" type="EV_low"/>
    <trip id="316" depart="6164.00" from="23906784#3" to="-276487117#11" type="EV_low"/>
    <trip id="317" depart="6179.00" from="276487111#11" to="23888388#0" type="EV_low"/>
    <trip id="318" depart="6179.00" from="1473331591#3" to="-39003896#19" type="EV_low"/>
    <trip id="319" depart="6208.00" from="-39003739#8" to="23906767#5" type="EV_low"/>
    <trip id="320" depart="6217.00" from="39018096#0" to="-1473331591#6" type="EV_low"/>
    <trip id="321" depart="6257.00" from="-276487111#10" to="47907916#6" type="EV_low"/>
    <trip id="322" depart="6263.00" from="-27000406#7" to="-39036152#16" type="EV_low"/>
    <trip id="323" depart="6265.00" from="29881060#3" to="-38958168#10" type="EV_low"/>
    <trip id="324" depart="6299.00" from="28154055#10" to="39003896#3" type="EV_low"/>
    <trip id="325" depart="6303.00" from="-1017850963#1" to="39003896#15" type="EV_low"/>
    <trip id="326" depart="6310.00" from="-39036152#37" to="-276487110#12" type="EV_low"/>
    <trip id="327" depart="6346.00" from="1106484586#3" to="-276487117#4" type="EV_low"/>
    <trip id="328" depart="6371.00" from="-23906787#1" to="-23907191#0" type="EV_low"/>
    <trip id="329" depart="6416.00" from="23906772#6" to="29880895#4" type="EV_low"/>
    <trip id="330" depart="6436.00" from="246288285#0" to="-39036152#29" type="EV_low"/>
    <trip id="331" depart="6442.00" from="-30098917#1" to="-23906782#17" type="EV_low"/>
    <trip id="332" depart="6446.00" from="257034846#7" to="-969245855#1" type="EV_low"/>
    <trip id="333" depart="6461.00" from="23906767#10" to="23906788#1" type="EV_low"/>
    <trip id="334" depart="6463.00" from="-39018096#3" to="-276487111#9" type="EV_low"/>