<?xml version="1.0" encoding="UTF-8"?>

<!-- generated on 2026-05-09 10:52:01.838698 by Eclipse SUMO randomTrips.py v1_26_0+1278-8cb37b9e3c1
<configuration>
    <net-file value="erlangen.net.xml"/>
    <output-trip-file value="ev_trips.trips.xml"/>
    <trip-attributes value="type=&quot;EV_low&quot;"/>
    <fringe-factor value="5"/>
    <end value="86400.0"/>
    <period value="20.0"/>
    <random-depart value="True"/>
</configuration>
-->

<!-- generated on 2026-05-09T10:52:01.368430+01:00 by Eclipse SUMO duarouter 1.26.0
<duarouterConfiguration xmlns:xsi="http://www.w3.org/2001/XMLSchema-instance" xsi:noNamespaceSchemaLocation="http://sumo.dlr.de/xsd/duarouterConfiguration.xsd">

    <input>
        <net-file value="erlangen.net.xml"/>
        <route-files value="ev_trips.trips.xml"/>
    </input>

    <output>
        <output-file value="routes.rou.xml"/>
        <alternatives-output value="NUL"/>
    </output>

    <time>
        <begin value="0.0"/>
        <end value="86400.0"/>
    </time>

    <report>
        <no-warnings value="true"/>
        <ignore-errors value="true"/>
        <no-step-log value="true"/>
    </report>

</duarouterConfiguration>
-->

<routes xmlns:xsi="http://www.w3.org/2001/XMLSchema-instance" xsi:noNamespaceSchemaLocation="http://sumo.dlr.de/xsd/routes_file.xsd">
    <vehicle id="0" type="EV_low" depart="7.00">
        <route edges="-39036152#0 39036152#0 39036152#1 39036152#2 39036152#3 39036152#4 39036152#5 39036152#6 39036152#7 39036152#8 39036152#9 39036152#10 39036152#11 39036152#12 39036152#13 39036152#14 39036152#15 39036152#16 39036152#17 39036152#18 39036152#19 39036152#20 39036152#21 39036152#22 39036152#23 39036152#24 39036152#25 39036152#26 39036152#27 39036152#28 39036152#29 39036152#30 39036152#31 39036152#32 39036152#33 39036152#34 39036152#35 39036152#36 39036152#37 39036152#38 39036152#39 39036152#40 39036152#41 39036152#42 -276487110#13 -276487110#12 -276487110#11 -276487110#10 -276487110#9 -276487110#8 -276487110#7 -276487110#6 -276487110#5 -276487110#4 -276487110#3 -276487110#2 -276487110#1 -276487110#0 -1106484585#1 -1106484585#0 -39003870#4 -39003870#3 -39003870#2 -39003870#1 -39003870#0 -39003896#21 -39003896#20 -39003896#19 -39003896#18 -39003896#17 -39003896#16 -39003896#15 -39003896#14 -39003896#13 39003896#13 39003896#14 39003896#15 39003896#16 39003896#17 39003896#18 39003896#19 39003896#20 39003896#21"/>
    </vehicle>
    <vehicle id="1" type="EV_low" depart="44.00">
        <route edges="-39003454#1 -39003454#0 39003454#0 39003454#1 27000406#1 27000406#2 27000406#3 27000406#4 27000406#5 27000406#6 27000406#7 -23906782#24 -23906782#23 -23906782#22 -23906782#21 -23906782#20 -23906782#19 -23906782#18 -23906782#17 -23906782#16 -23906782#15 -23906782#14 -23906782#13 -23906782#12 -23906782#11 -23906782#10 -23906782#9 -23906784#11 -23906784#10 -23906784#9 -23906784#8 -23906784#7 -23906784#6 -23906784#5 -23906784#4 -23906784#3 -23906784#2 -23906784#1 -23906784#0 -39437412#4 -39437412#3 -39437412#2 -39437412#1 -39437412#0 -39437414#1 -39437414#0 -39036152#21 -39036152#20 -39036152#19 -39036152#18 -39036152#17 -39036152#16 -39036152#15 -39036152#14 -39036152#13 -39036152#12 -39036152#11 -39036152#10 -39036152#9 -39036152#8 -39036152#7 -39036152#6 -39036152#5 -39036152#4 -39036152#3 -39036152#2 -39036152#1 -39036152#0 23906767#0 23906767#1 23906767#2 23906767#3 23906767#4 23906767#5 23906767#6 23906767#7 23906767#8 23906767#9 23906767#10 23906767#11"/>
    </vehicle>
    <vehicle id="2" type="EV_low" depart="55.00">
        <route edges="-39437418#1 -39437418#0 -30098917#4 -30098917#3 -30098917#2 -30098917#1 -30098917#0 -28153997 -29879649#5 -29879649#4 -29879649#3 -29879649#2 -29879649#1 -29879649#0 276487118#0 276487118#1 276487118#2 232832924#0 232832924#1 -258067387#2 -258067387#1 -258067387#0 -28428401#2 -28428401#1 -28428401#0 -263804570 -276487116#2 -276487116#1 -276487116#0 -1164348430#3 -1164348430#2 -1164348430#1 -1164348430#0 -276487113#10 -276487113#9 -276487113#8 -276487113#7 -276487113#6 -276487113#5 -276487113#4 -276487113#3 -276487113#2 -276487113#1 -276487113#0 -276487110#13 -276487110#12 -276487110#11 -276487110#10 -276487110#9 -276487110#8 -276487110#7 -276487110#6 -276487110#5 -276487110#4 -276487110#3 -276487110#2 -276487110#1 -276487110#0 -1106484585#1 -1106484585#0 -23906782#30 -23906782#29 -23906782#28 -23906782#27 -23906782#26 -23906782#25 -23906782#24 -23906782#23"/>
    </vehicle>
    <vehicle id="3" type="EV_low" depart="69.00">
        <route edges="-1202556864#2 -1202556864#1 -1202556864#0 5062430#0 5062430#1 5062430#2 5062430#3 1178584785#0 1178584785#1 1178584786 23907191#0 23907191#1 1178583971#0 1178583971#1 23906791#0 23906791#1 23906791#2 23906791#3 23906791#4 -276487112#4 -276487112#3 -276487112#2 -276487112#1 -276487112#0 -39036152#42 -39036152#41 -39036152#40 -39036152#39 -39036152#38 -39036152#37 -39036152#36 -39036152#35 -39036152#34 -39036152#33 -39036152#32 -39036152#31 -39036152#30 -39036152#29 -39036152#28 -39036152#27 -39036152#26 -39036152#25 -39036152#24 -39036152#23 -39036152#22 39437414#0 39437414#1 39437412#0 39437412#1 39437412#2 39437412#3 39437412#4 23906784#0 23906784#1 23906784#2 23906784#3"/>
    </vehicle>
    <vehicle id="4" type="EV_low" depart="85.00">
        <route edges="23888386#1 23888386#2 23888386#3 23888386#4 23888386#5 23888386#6 923837643#1 923837643#2 257034846#0 257034846#1 257034846#2 257034846#3 257034846#4 257034846#5 257034846#6 257034846#7 257034846#8 257034846#9 257034846#10 257034846#11 257034846#12 257034846#13 257034846#14 257034846#15 23906784#0 23906784#1 23906784#2 23906784#3 23906784#4 23906784#5 23906784#6 23906784#7 23906784#8 23906784#9 23906784#10 23906784#11 23906782#9 23906782#10 23906782#11 23906782#12 23906782#13 23906782#14 23906782#15 23906782#16 23906782#17 23906782#18 23906782#19 23906782#20 23906782#21 23906782#22"/>
    </vehicle>
    <vehicle id="5" type="EV_low" depart="85.00">
        <route edges="-47907916#12 -47907916#11 -47907916#10 -47907916#9 47907916#9 47907916#10 47907916#11 47907916#12 47907916#13 47907916#14 47907916#15 5037404#0 5037404#1 5037404#2 5037404#3 5037404#4 5037404#5 5037404#6 5037404#7 5037404#8 5037404#9 5037404#10 5037404#11 1106484583#0 1106484583#1 1106484583#2 1106484583#3 39036152#0 39036152#1 39036152#2 39036152#3 39036152#4 39036152#5 39036152#6 39036152#7 39036152#8 39036152#9 39036152#10 39036152#11 39036152#12 39036152#13 39036152#14 39036152#15 39036152#16 39036152#17 39036152#18 39036152#19 39036152#20 39036152#21 39036152#22 39036152#23 39036152#24 39036152#25 39036152#26 39036152#27 39036152#28 39036152#29 39036152#30 39036152#31 39036152#32 39036152#33 39036152#34 39036152#35 39036152#36 39036152#37 39036152#38 39036152#39 39036152#40 39036152#41 39036152#42 -276487110#13 -276487110#12 -276487110#11 -276487110#10 -276487110#9 -276487110#8 -276487110#7 -276487110#6 -276487110#5 -276487110#4 -276487110#3 -276487110#2 -276487110#1 -276487110#0 -1106484586#15 -1106484586#14 -1106484586#13 -1106484586#12 -1106484586#11 -1106484586#10 -1106484586#9 -1106484586#8 -1106484586#7 -1106484586#6 -1106484586#5 -1106484586#4 -1106484586#3 -1106484586#2 -1106484586#1 -1106484586#0 1164366785#0 1164366785#1 1106484587#0 1106484587#1 1106484587#2 -27000397#17 -27000397#16 -27000397#15 -27000397#14 -27000397#13 -27000397#12 -27000397#11 -27000397#10 -27000397#9 -27000397#8 -27000397#7 -27000397#6 -27000397#5 -27000397#4 -27000397#3"/>
    </vehicle>
    <vehicle id="6" type="EV_low" depart="107.00">
        <route edges="-23906781#4 -23906781#3 -23906781#2 -23906781#1 -23906781#0 -39437411#4 -39437411#3 -39437411#2 -39437411#1 -39437411#0 -39437412#4 -39437412#3 -39437412#2 -39437412#1 -39437412#0 -39437414#1 -39437414#0 -39437415#4 -39437415#3 -39437415#2 -39437415#1 -39437415#0 -39437416 -39437417#1 -39437417#0 -23906772#8 -23906772#7 -23906772#6 -23906772#5 -23906772#4 -23906772#3 -23906772#2 -23906772#1 -23906772#0 276487109#4 276487109#5 276487109#6 276487109#7 276487109#8 257598222#0 257598222#1 257598222#2"/>
    </vehicle>
    <vehicle id="7" type="EV_low" depart="125.00">
        <route edges="1164348429#0 1164348429#1 5062430#0 5062430#1 5062430#2 5062430#3 1178584785#0 1178584785#1 1178584786 23907191#0 23907191#1 1178583971#0 1178583971#1 23906791#0 23906791#1 23906791#2 23906791#3 23906791#4 -276487112#4 -276487112#3 -276487112#2 -276487112#1 -276487112#0 -39036152#42 -39036152#41 -39036152#40 -39036152#39 -39036152#38 -39036152#37 -39036152#36 -39036152#35 -39036152#34 -39036152#33 -39036152#32 -39036152#31 -39036152#30 -39036152#29 -39036152#28 -39036152#27"/>
    </vehicle>
    <vehicle id="8" type="EV_low" depart="134.00">
        <route edges="39003739#3 39003739#4 39003739#5 39003739#6 39003739#7 39003739#8 39003739#9 39003739#10 39003739#11 -39003739#11 -39003739#10 -39003739#9 -39003739#8 -39003739#7 -39003739#6 -39003739#5 -39003739#4 -39003739#3 -39003739#2 -39003739#1 -39003739#0 -1221478482#1 -1221478482#0 -276487117#19 -276487117#18 -276487117#17 -276487117#16 -276487117#15 -276487117#14 -276487117#13 -276487117#12 -276487117#11 -276487117#10 39036152#35 39036152#36 39036152#37 39036152#38 39036152#39 39036152#40 39036152#41 39036152#42 276487112#0 276487112#1 276487112#2 276487112#3 276487112#4 -23906791#4 -23906791#3 -23906791#2 -23906791#1 -23906791#0 48441537 -1256914431#3 -1256914431#2 -1256914431#1 -1256914431#0 -1473331591#7 -1473331591#6 -1473331591#5 -1473331591#4 -1473331591#3 -1473331591#2 -1473331591#1 -1473331591#0 -1256914430 -23906792#8 -23906792#7 -23906792#6 -23906792#5 -23906792#4 -23906792#3 -23906792#2 -23906792#1"/>
    </vehicle>
    <vehicle id="9" type="EV_low" depart="143.00">
        <route edges="E12 E13 -39437417#1 -39437417#0 -39437418#1 -39437418#0 -30098917#4 -30098917#3 -30098917#2 -30098917#1 -30098917#0 -28153997 -29879649#5 -29879649#4 -29879649#3 -29879649#2 -29879649#1 -29879649#0 -103416087 -276487119 -247031740#4 -247031740#3 -247031740#2 -247031740#1 -247031740#0 -30633012#1 -30633012#0 -258778187#3 -258778187#2 -258778187#1 -258778187#0 -31368738 -31795494#3 -31795494#2 -31795494#1 -31795494#0 -261052504 -28154055#20 -28154055#19 -28154055#18 -28154055#17 -28154055#16 -372348591#17 -372348591#16 -372348591#15 -372348591#14 -372348591#13 -372348591#12 -372348591#11 -372348591#10 -372348591#9"/>
    </vehicle>
    <vehicle id="10" type="EV_low" depart="156.00">
        <route edges="969245855#1 1162630331#0 1162630331#1 1162630331#2 30633011 -30633011 -1162630331#2 -1162630331#1 -1162630331#0 -969245855#1 -969245855#0 -1382768388#4 -1382768388#3 -1382768388#2 -1382768388#1 -1382768388#0 -276487118#3 232832924#0 232832924#1 -258067387#2 -258067387#1 -258067387#0 -28428401#2 -28428401#1 -28428401#0 -263804570 -276487116#2 -276487116#1 -276487116#0 -1164348430#3 -1164348430#2 -1164348430#1 -1164348430#0 -276487115#9 -276487115#8 -276487115#7 -276487115#6 -276487115#5 -276487115#4 -276487115#3 -276487115#2 -276487115#1 -276487115#0 -48441537 -1178583971#1 -1178583971#0 -23907191#1 -23907191#0 -1178584786 -1178584785#1 -1178584785#0 -5062430#3 -5062430#2 -5062430#1 -5062430#0 1202556864#0 1202556864#1 1202556864#2 1202556864#3 39004220#0 39004220#1"/>
    </vehicle>
    <vehicle id="11" type="EV_low" depart="159.00">
        <route edges="969245855#0 969245855#1 1162630331#0 1162630331#1 1162630331#2 30633011 -30633011 -1162630331#2 -1162630331#1 -1162630331#0 -969245855#1 -969245855#0 -1382768388#4 -1382768388#3 -1382768388#2 -1382768388#1 -1382768388#0 -276487118#3 232832924#0 232832924#1 -258067387#2 -258067387#1 -258067387#0 -28428401#2 -28428401#1 -28428401#0 -263804570 -276487116#2 -276487116#1 -276487116#0 1164430202#0 1164430202#1 23906788#0 23906788#1 23906788#2 23906788#3 23906788#4 23906788#5 -23906788#5 -23906788#4 -23906788#3 -23906788#2 -23906788#1 -23906788#0"/>
    </vehicle>
    <vehicle id="12" type="EV_low" depart="162.00">
        <route edges="38958194#3 38958194#4 38958194#5 38958194#6 38958194#7 146288716#0 146288716#1 -146288716#1 -146288716#0 -38958194#7 -38958194#6 -38958194#5 -38958194#4 -38958194#3 -38958194#2 -38958194#1 -38958194#0 -1106484587#2 -1106484587#1 -1106484587#0 -1164366785#1 -1164366785#0 1106484586#0 1106484586#1 1106484586#2 1106484586#3 1106484586#4 1106484586#5 1106484586#6 1106484586#7 1106484586#8 1106484586#9 1106484586#10 1106484586#11 1106484586#12 1106484586#13 1106484586#14 1106484586#15 276487110#0 276487110#1 276487110#2 276487110#3 276487110#4 276487110#5 276487110#6 276487110#7 276487110#8 276487110#9 276487110#10 276487110#11 276487110#12 276487110#13 276487113#0 276487113#1 276487113#2 276487113#3 276487113#4 276487113#5 276487113#6 276487113#7 276487113#8 276487113#9 276487113#10 1164348430#0 1164348430#1 1164348430#2 1164348430#3 276487116#0 276487116#1 276487116#2 263804570 28428401#0 28428401#1 28428401#2 258067387#0 258067387#1 258067387#2 246288285#0 246288285#1 -276487118#3 -276487118#2 -276487118#1 -276487118#0 -103416087 -276487119 -247031740#4 -247031740#3 -247031740#2 -247031740#1 -247031740#0 -30633012#1 -30633012#0 -258778187#3 -258778187#2 -258778187#1"/>
    </vehicle>
    <vehicle id="13" type="EV_low" depart="186.00">
        <route edges="-1473331591#2 -1473331591#1 -1473331591#0 -1256914430 -23906792#8 -23906792#7 -23906792#6 -23906792#5 -23906792#4 -23906792#3 -23906792#2 -23906792#1 -23906792#0 28428401#0 28428401#1 28428401#2 258067387#0 258067387#1 258067387#2 246288285#0 246288285#1 -276487118#3 -276487118#2 -276487118#1 -276487118#0 -103416087 -276487119 -247031740#4 -247031740#3 -247031740#2 -247031740#1 -247031740#0 -30633012#1 -30633012#0 -258778187#3 -258778187#2 -258778187#1 -258778187#0 -31368738 -31795494#3 -31795494#2 -31795494#1 -31795494#0 -261052504 -28154055#20 -28154055#19 -28154055#18 -28154055#17 -28154055#16 -372348591#17 -372348591#16 -372348591#15 -372348591#14 -372348591#13 -372348591#12 -372348591#11 -372348591#10 -372348591#9 -372348591#8 -372348591#7 -372348591#6 -372348591#5 -372348591#4 -372348591#3 -372348591#2 -372348591#1"/>
    </vehicle>
    <vehicle id="14" type="EV_low" depart="197.00">
        <route edges="969245855#0 969245855#1 1162630331#0 1162630331#1 1162630331#2 30633011 -30633011 -1162630331#2 -1162630331#1 -1162630331#0 -969245855#1 -969245855#0 -1382768388#4 -1382768388#3 -1382768388#2 -1382768388#1 -1382768388#0 -276487118#3 232832924#0 232832924#1 -258067387#2 -258067387#1 -258067387#0 -28428401#2 -28428401#1 -28428401#0 -263804570 -276487116#2 -276487116#1 -276487116#0 -1164348430#3 -1164348430#2 -1164348430#1 -1164348430#0 -276487113#10 -276487113#9 -276487113#8 -276487113#7 -276487113#6 -276487113#5 -276487113#4 -276487113#3 -276487113#2 -276487113#1 -276487113#0 -276487110#13 -276487110#12 -276487110#11 -276487110#10 -276487110#9 -276487110#8 -276487110#7 -276487110#6 -276487110#5 -276487110#4 -276487110#3 -276487110#2 -276487110#1 -276487110#0 -1106484586#15 -1106484586#14 -1106484586#13 -1106484586#12 -1106484586#11 -1106484586#10 -1106484586#9 -1106484586#8 -1106484586#7 -1106484586#6 -1106484586#5 -1106484586#4 -1106484586#3 -1106484586#2 -1106484586#1 -1106484586#0 -1164366798#1 -1164366798#0 -276487111#12 -276487111#11 -276487111#10 -1017850963#5 -1017850963#4 -1017850963#3 -1017850963#2 -1017850963#1 -1017850963#0 29881060#0 29881060#1 29881060#2 29881060#3 29881060#4 -29881060#4 -29881060#3 -29881060#2 -29881060#1"/>
    </vehicle>
    <vehicle id="15" type="EV_low" depart="207.00">
        <route edges="-1256914431#1 -1256914431#0 -1473331591#7 -1473331591#6 -1473331591#5 -1473331591#4 -1473331591#3 -1473331591#2 -1473331591#1 -1473331591#0 -1256914430 -23906792#8 -23906792#7 -23906792#6 -23906792#5 -23906792#4 -23906792#3 -23906792#2 -23906792#1 -23906792#0 28428401#0 28428401#1 28428401#2 258067387#0 258067387#1 258067387#2 246288285#0 246288285#1 -276487118#3 -276487118#2 -276487118#1 -276487118#0 -103416087 -276487119 -257598222#5 -257598222#4 -257598222#3 -257598222#2 -257598222#1 -257598222#0 -276487109#8 -276487109#7 -276487109#6 -276487109#5 -276487109#4 -276487109#3 -276487109#2 -276487109#1 -276487109#0 -1106484583#3 -1106484583#2 -1106484583#1 -1106484583#0 -5037404#11 -5037404#10 -5037404#9 -5037404#8 -5037404#7 -5037404#6 -5037404#5 -5037404#4 -5037404#3 -5037404#2 -5037404#1 -5037404#0 -47907916#15 -47907916#14 -47907916#13 -47907916#12 -47907916#11 -47907916#10 -47907916#9 -47907916#8 -47907916#7 -47907916#6 -47907916#5 -47907916#4 -47907916#3 -47907916#2 -47907916#1 -47907916#0"/>
    </vehicle>
    <vehicle id="16" type="EV_low" depart="250.00">
        <route edges="-27000397#4 -27000397#3 -27000397#2 -27000397#1 -27000397#0 -27000396#5 -27000396#4 -27000396#3 -27000396#2 -27000396#1 -27000396#0 1106484589#0 1106484589#1 1164366795#0 1164366795#1 276487111#0 276487111#1 276487111#2 276487111#3 276487111#4 276487111#5 276487111#6 276487111#7 276487111#8 276487111#9 276487111#10 276487111#11 276487111#12 1164366798#0 1164366798#1 1106484586#0 1106484586#1 1106484586#2 1106484586#3 1106484586#4 1106484586#5 1106484586#6 1106484586#7 1106484586#8 1106484586#9 1106484586#10 1106484586#11 1106484586#12 1106484586#13 1106484586#14 1106484586#15 -276487114#13 -276487114#12 -276487114#11 -276487114#10 -276487114#9 -276487114#8 -276487114#7 -276487114#6 -276487114#5 -276487114#4 -276487114#3 -276487114#2 -276487114#1 -276487114#0 -23906791#4 -23906791#3 -23906791#2 -23906791#1 -23906791#0 48441537 276487115#0 276487115#1 276487115#2 276487115#3 276487115#4 276487115#5 276487115#6 276487115#7 276487115#8"/>
    </vehicle>
    <vehicle id="17" type="EV_low" depart="276.00">
        <route edges="23888385#2 23888385#3 23888385#4 23888385#5 23888385#6 23888385#7 23888385#8 -23888385#8 -23888385#7 -23888385#6 -23888385#5 -23888385#4 -23888385#3 -23888385#2 -23888385#1 -23888385#0 28154055#11 28154055#12 28154055#13 28154055#14 28154055#15 28154055#16 28154055#17 28154055#18 28154055#19 28154055#20 261052504 31795494#0 31795494#1 31795494#2 31795494#3 31368738 258778187#0 258778187#1 258778187#2 258778187#3 30633012#0 30633012#1 247031740#0 247031740#1 247031740#2 247031740#3 247031740#4 -247031740#4 -247031740#3 -247031740#2 -247031740#1 -247031740#0"/>
    </vehicle>
    <vehicle id="18" type="EV_low" depart="279.00">
        <route edges="276487117#6 276487117#7 276487117#8 276487117#9 276487117#10 276487117#11 276487117#12"/>
    </vehicle>
    <vehicle id="19" type="EV_low" depart="295.00">
        <route edges="-23906782#19 -23906782#18 -23906782#17 -23906782#16 -23906782#15 -23906782#14 -23906782#13 -23906782#12 -23906782#11 -23906782#10 -23906782#9 -23906782#8 -23906782#7 -23906782#6 -23906782#5 -23906782#4 -23906782#3 -23906782#2 -23906782#1 -23906782#0 -39437409#3 -39437409#2 -39437409#1 -39437409#0 -39437411#4"/>
    </vehicle>
    <vehicle id="20" type="EV_low" depart="303.00">
        <route edges="-39036152#22 39437414#0 39437414#1 39437412#0 39437412#1 39437412#2 39437412#3 39437412#4 39437411#0 39437411#1 39437411#2 39437411#3 39437411#4 39437409#0 39437409#1 39437409#2 39437409#3 -39437409#3 -39437409#2 -39437409#1"/>
    </vehicle>
    <vehicle id="21" type="EV_low" depart="352.00">
        <route edges="-47907916#7 -47907916#6 -47907916#5 -47907916#4 -47907916#3 -47907916#2 -47907916#1 -47907916#0 47907916#0 47907916#1 47907916#2 47907916#3 47907916#4 47907916#5 47907916#6 47907916#7 47907916#8 47907916#9 47907916#10 47907916#11 47907916#12 47907916#13 47907916#14 47907916#15 5037404#0 5037404#1 5037404#2 5037404#3 5037404#4 5037404#5 5037404#6 5037404#7 5037404#8 5037404#9 5037404#10 5037404#11 1106484583#0 1106484583#1 1106484583#2 1106484583#3 39036152#0 39036152#1 39036152#2 39036152#3 39036152#4 39036152#5 39036152#6 39036152#7 39036152#8 39036152#9 39036152#10 39036152#11 39036152#12 39036152#13 39036152#14 39036152#15 39036152#16 39036152#17 39036152#18 39036152#19 39036152#20 39036152#21 39036152#22 39036152#23 39036152#24 39036152#25 39036152#26 39036152#27 39036152#28 39036152#29 39036152#30 39036152#31 39036152#32 39036152#33 39036152#34 39036152#35 39036152#36 39036152#37 39036152#38 39036152#39 39036152#40 39036152#41 39036152#42 -276487110#13 -276487110#12 -276487110#11 -276487110#10 -276487110#9 -276487110#8 -276487110#7 -276487110#6 -276487110#5 -276487110#4 -276487110#3 -276487110#2 -276487110#1 -276487110#0 -1106484586#15 -1106484586#14 -1106484586#13 -1106484586#12 -1106484586#11 -1106484586#10 -1106484586#9 -1106484586#8 -1106484586#7 -1106484586#6 -1106484586#5 -1106484586#4 -1106484586#3 -1106484586#2 -1106484586#1 -1106484586#0 -1164366798#1 -1164366798#0 -276487111#12 -276487111#11 -276487111#10 -1017850963#5 -1017850963#4 -1017850963#3 -1017850963#2 -1017850963#1 -1017850963#0 29881060#0 -27000399#3 -27000399#2 -27000399#1 -27000399#0 -1017850962#8 -1017850962#7"/>
    </vehicle>
    <vehicle id="22" type="EV_low" depart="358.00">
        <route edges="1164366785#0 1164366785#1 1106484587#0 1106484587#1 1106484587#2 -1106484587#2 -1106484587#1 -1106484587#0 -1164366785#1 -1164366785#0 1106484586#0 1106484586#1 1106484586#2 1106484586#3 1106484586#4 1106484586#5 1106484586#6 1106484586#7 1106484586#8 1106484586#9 1106484586#10 1106484586#11 1106484586#12 1106484586#13 1106484586#14 1106484586#15 276487110#0 276487110#1 276487110#2 276487110#3 276487110#4 276487110#5 276487110#6 276487110#7 276487110#8 276487110#9 276487110#10 276487110#11 276487110#12 276487110#13 -39036152#42 -39036152#41 -39036152#40 -39036152#39 -39036152#38 -39036152#37 -39036152#36 -39036152#35 -276487117#9 -276487117#8 -276487117#7 -276487117#6 -276487117#5 -23906787#12 -23906787#11 -23906787#10 -23906787#9 -23906787#8 -23906787#7 -23906787#6 -23906787#5 -23906787#4 -23906787#3 -23906787#2 -23906787#1 -23906787#0 -39437416 -39437417#1 -39437417#0 -23906772#8 -23906772#7 -23906772#6 -23906772#5 -23906772#4 -23906772#3 -23906772#2 -23906772#1 -23906772#0 276487109#4 276487109#5 276487109#6"/>
    </vehicle>
    <vehicle id="23" type="EV_low" depart="364.00">
        <route edges="39437415#4 39036152#22 39036152#23 39036152#24 39036152#25 39036152#26 39036152#27 39036152#28 39036152#29 39036152#30 39036152#31 39036152#32 39036152#33 39036152#34 39036152#35 39036152#36 39036152#37 39036152#38 39036152#39 39036152#40 39036152#41 39036152#42 276487112#0 276487112#1 276487112#2 276487112#3 276487112#4 -23906791#4 -23906791#3 -23906791#2 -23906791#1 -23906791#0 -1178583971#1 -1178583971#0 -23907191#1 -23907191#0 -1178584786 -1178584785#1 -1178584785#0 -5062430#3 -5062430#2 -5062430#1 -5062430#0 1202556864#0 1202556864#1 1202556864#2 1202556864#3 39004220#0"/>
    </vehicle>
    <vehicle id="24" type="EV_low" depart="373.00">
        <route edges="276487113#8 276487113#9 276487113#10 -276487115#9 -276487115#8 -276487115#7 -276487115#6 -276487115#5 -276487115#4 -276487115#3 -276487115#2 -276487115#1 -276487115#0 -48441537 -1178583971#1 -1178583971#0 -23907191#1 -23907191#0 -1178584786 -1178584785#1 -1178584785#0 -5062430#3 -5062430#2 -5062430#1 -5062430#0 5062430#0 5062430#1 5062430#2 5062430#3 1178584785#0 1178584785#1"/>
    </vehicle>
    <vehicle id="25" type="EV_low" depart="378.00">
        <route edges="-1106484586#14 -1106484586#13 -1106484586#12 -1106484586#11 -1106484586#10 -1106484586#9 -1106484586#8 -1106484586#7 -1106484586#6 -1106484586#5 -1106484586#4 -1106484586#3 -1106484586#2 -1106484586#1 -1106484586#0 -1164366798#1 -1164366798#0 -276487111#12 -276487111#11 -276487111#10 -1017850963#5 -1017850963#4 -1017850963#3 -1017850963#2 -1017850963#1 -1017850963#0 29881060#0 -27000399#3 -27000399#2 -27000399#1 -27000399#0 -1017850962#8 -1017850962#7 -1017850962#6"/>
    </vehicle>
    <vehicle id="26" type="EV_low" depart="378.00">
        <route edges="276487110#12 276487110#13 276487113#0 276487113#1 276487113#2 276487113#3 276487113#4 276487113#5 276487113#6 276487113#7 276487113#8 276487113#9 276487113#10 1164348430#0 1164348430#1 1164348430#2 1164348430#3 276487116#0 276487116#1 276487116#2 263804570 28428401#0 28428401#1 28428401#2 258067387#0 258067387#1 258067387#2 246288285#0 246288285#1 -276487118#3 -276487118#2 -276487118#1 -276487118#0 -103416087 -276487119 -257598222#5 -257598222#4 -257598222#3 -257598222#2 -257598222#1 -257598222#0 -276487109#8 -276487109#7"/>
    </vehicle>
    <vehicle id="27" type="EV_low" depart="393.00">
        <route edges="39003870#2 39003870#3 39003870#4 1106484585#0 1106484585#1 -1106484586#15 -1106484586#14 -1106484586#13 -1106484586#12 -1106484586#11 -1106484586#10 -1106484586#9 -1106484586#8 -1106484586#7 -1106484586#6 -1106484586#5 -1106484586#4 -1106484586#3 -1106484586#2 -1106484586#1 -1106484586#0 -1164366798#1 -1164366798#0 -276487111#12 -276487111#11 -276487111#10 -276487111#9 -276487111#8 -276487111#7 -276487111#6 -276487111#5 -276487111#4 -276487111#3 -276487111#2 -276487111#1 -276487111#0 -1164366795#1 -1164366795#0 -1106484589#1 -1106484589#0 -519072663#1 29880895#0 29880895#1 -29880895#4"/>
    </vehicle>
    <vehicle id="28" type="EV_low" depart="396.00">
        <route edges="-23906768#0 23906767#5 23906767#6 23906767#7 23906767#8 23906767#9 23906767#10 23906767#11 31795494#3 31368738 258778187#0 258778187#1 258778187#2 258778187#3 30633012#0 30633012#1 247031740#0 247031740#1 247031740#2 247031740#3 247031740#4 276487119 103416087 276487118#0 276487118#1 276487118#2 232832924#0 232832924#1 -258067387#2 -258067387#1 -258067387#0 -28428401#2 -28428401#1 -28428401#0 -263804570 -276487116#2 -276487116#1 -276487116#0 -1164348430#3 -1164348430#2 -1164348430#1 -1164348430#0 -276487113#10 -276487113#9 -276487113#8 -276487113#7 -276487113#6 -276487113#5 -276487113#4 -276487113#3 -276487113#2 -276487113#1 -276487113#0 -276487110#13 -276487110#12 -276487110#11 -276487110#10 -276487110#9 -276487110#8 -276487110#7 -276487110#6 -276487110#5 -276487110#4 -276487110#3 -276487110#2 -276487110#1 -276487110#0 -1106484586#15 -1106484586#14 -1106484586#13 -1106484586#12 -1106484586#11 -1106484586#10 -1106484586#9 -1106484586#8 -1106484586#7 -1106484586#6 -1106484586#5 -1106484586#4 -1106484586#3 -1106484586#2 -1106484586#1 -1106484586#0 1164366785#0 1164366785#1 1106484587#0"/>
    </vehicle>
    <vehicle id="29" type="EV_low" depart="446.00">
        <route edges="-28154055#14 -28154055#13 -28154055#12 -28154055#11 28154055#11 28154055#12 28154055#13 28154055#14 28154055#15 28154055#16 28154055#17 28154055#18 28154055#19 28154055#20 -1162630573 -128817187#3 -128817187#2 -128817187#1 -128817187#0"/>
    </vehicle>
    <vehicle id="30" type="EV_low" depart="459.00">
        <route edges="-1164433070#2 -1164433070#1 -1164433070#0 39437417#0 39437417#1 39437416 39437415#0 39437415#1 39437415#2 39437415#3 39437415#4 39437414#0 39437414#1 39437412#0 39437412#1 39437412#2 39437412#3 39437412#4 39437411#0 39437411#1 39437411#2 39437411#3 39437411#4"/>
    </vehicle>
    <vehicle id="31" type="EV_low" depart="478.00">
        <route edges="-39437412#4 -39437412#3 -39437412#2 -39437412#1 -39437412#0 -39437414#1 -39437414#0 39036152#22 39036152#23 39036152#24 39036152#25 39036152#26 39036152#27 39036152#28 39036152#29 39036152#30 39036152#31 39036152#32 39036152#33 39036152#34 39036152#35 39036152#36 39036152#37 39036152#38 39036152#39 39036152#40 39036152#41 39036152#42 -276487110#13 -276487110#12 -276487110#11 -276487110#10 -276487110#9 -276487110#8 -276487110#7 -276487110#6 -276487110#5 -276487110#4 -276487110#3 -276487110#2 -276487110#1 -276487110#0 -1106484586#15 -1106484586#14 -1106484586#13 -1106484586#12 -1106484586#11 -1106484586#10 -1106484586#9 -1106484586#8 -1106484586#7 -1106484586#6 -1106484586#5 -1106484586#4 -1106484586#3 -1106484586#2 -1106484586#1 -1106484586#0 -1164366798#1 -1164366798#0 -276487111#12 -276487111#11 -276487111#10 -276487111#9 -276487111#8 -276487111#7 -276487111#6 -276487111#5 -276487111#4 -276487111#3 -276487111#2 -276487111#1 -276487111#0 -1164366795#1 -1164366795#0 -1106484589#1 -1106484589#0 1106484589#0 1106484589#1 1164366795#0"/>
    </vehicle>
    <vehicle id="32" type="EV_low" depart="504.00">
        <route edges="1150210752 -1150210752 257034846#0 257034846#1 257034846#2 257034846#3 257034846#4 257034846#5 257034846#6 257034846#7 257034846#8 257034846#9 257034846#10 257034846#11 257034846#12 257034846#13 257034846#14 257034846#15 39437411#0 39437411#1 39437411#2 39437411#3 39437411#4 -39437411#4"/>
    </vehicle>
    <vehicle id="33" type="EV_low" depart="560.00">
        <route edges="263804570 -263804570 -276487116#2 -276487116#1 -276487116#0 1164430202#0 1164430202#1 23906788#0 23906788#1 23906788#2 23906788#3 23906788#4 23906788#5 276487117#0 276487117#1 276487117#2 276487117#3 276487117#4 276487117#5 276487117#6 276487117#7 276487117#8 276487117#9 276487117#10 276487117#11 276487117#12 276487117#13 276487117#14 276487117#15 276487117#16 276487117#17 276487117#18 276487117#19 -23906782#14 -23906782#13 -23906782#12 -23906782#11 -23906782#10 -23906782#9 -23906784#11 -23906784#10 -23906784#9 -23906784#8"/>
    </vehicle>
    <vehicle id="34" type="EV_low" depart="603.00">
        <route edges="E23 1369680292 249914460 -276487119 -257598222#5 -257598222#4 -257598222#3 -257598222#2 -257598222#1 -257598222#0 -276487109#8 -276487109#7 -276487109#6 -276487109#5 -276487109#4 -276487109#3 -276487109#2 -276487109#1 -276487109#0 -1106484583#3 -1106484583#2 -1106484583#1 -1106484583#0 1106484583#0 1106484583#1"/>
    </vehicle>
    <vehicle id="35" type="EV_low" depart="643.00">
        <route edges="276487112#3 276487112#4 -276487112#4 -276487112#3 -276487112#2 -276487112#1 -276487112#0 -39036152#42 -39036152#41 -39036152#40 -39036152#39 -39036152#38 -39036152#37 -39036152#36 -39036152#35 -39036152#34 -39036152#33 -39036152#32 -39036152#31 -39036152#30 -39036152#29 -39036152#28 -39036152#27 -39036152#26 -39036152#25 -39036152#24 -39036152#23 -39036152#22 39437414#0 39437414#1 39437412#0 39437412#1 39437412#2 39437412#3 39437412#4 -257034846#15 -257034846#14 -257034846#13 -257034846#12 -257034846#11"/>
    </vehicle>
    <vehicle id="36" type="EV_low" depart="662.00">